%nprocshared=8
%mem=4000MB
%chk=305_73scan.chk
# opt freq em=gd3bj int=ultrafine pbe1pbe scf=xqc svp

Title Card Required

1 1
 C                  2.02203500   -1.62840700   -1.18739600
 C                  3.51950000   -1.63223300    0.83882700
 C                 -1.77695300   -1.73025100    1.11870900
 C                 -3.29785800    0.98564000    0.85439200
 C                  2.57638900    0.52799300    0.04074700
 C                  2.32209600   -0.97682100    0.15901200
 C                  1.47322400    1.32970300   -0.63065700
 C                  0.05057500    0.95395800    0.25188700
 N                  1.62749500    2.68948200   -0.61524400
 O                  0.06588700    1.20349200    1.41390700
 O                 -0.79836800    0.42965900   -0.53386500
 Si                -2.35088200   -0.36242800    0.00355800
 H                  1.90334000   -2.71529200   -1.06863000
 H                  2.84747300   -1.46709500   -1.89986200
 H                  1.09400200   -1.25427000   -1.64750800
 H                  3.34109600   -2.70632200    0.99121000
 H                  3.72482900   -1.18341600    1.82229400
 H                  4.42771500   -1.53084600    0.22319900
 H                 -2.64801500   -2.30635600    1.47147600
 H                 -1.25816700   -1.33954100    2.00716300
 H                 -1.10982000   -2.42845700    0.59043600
 H                 -4.26278500    0.58382400    1.20525200
 H                 -3.51523600    1.82294600    0.17417000
 H                 -2.75827400    1.36827100    1.73365900
 H                  3.48698200    0.69805000   -0.56169500
 H                  2.75911600    0.95674300    1.04019700
 H                  1.44915300   -1.12489600    0.82170200
 H                  1.18130000    0.97981400   -1.63052600
 H                  2.07053500    3.15260600    0.17688400
 H                  1.16202200    3.28541500   -1.29504300

